   12

C       1.231056    0.710687    0.000000
H       2.199486    1.270138   -0.000000
C       0.000000    1.421367    0.000000
H      -0.000000    2.539796    0.000000
C      -1.231056    0.710687   -0.000000
H      -2.199486    1.270138    0.000000
C      -1.231056   -0.710687    0.000000
H      -2.199486   -1.270138    0.000000
C       0.000000   -1.421367   -0.000000
H       0.000000   -2.539796   -0.000000
C       1.231056   -0.710687    0.000000
H       2.199486   -1.270138    0.000000
