    8

Si     -2.727535   -2.727535   -2.727535
Si     -2.727573    0.000337    0.000337
Si      0.000337   -2.727573    0.000337
Si      0.000337    0.000337   -2.727573
Si     -1.363561   -1.363561   -1.363561
Si     -1.363601    1.364307    1.364307
Si      1.364307   -1.363601    1.364307
Si      1.364307    1.364307   -1.363601
