8
 generated by VMD
 Si       -2.715000       -2.715000       -2.715000
 Si       -2.715000       -0.000000       -0.000000
 Si       -0.000000       -2.715000       -0.000000
 Si       -0.000000       -0.000000       -2.715000
 Si       -1.357000       -1.357000       -1.357000
 Si       -1.357000        1.358000        1.358000
 Si        1.358000       -1.357000        1.358000
 Si        1.358000        1.358000       -1.357000
